<?xml version="1.0" encoding="UTF-8"?>

<!-- generated on 2024-05-28 15:54:31 by Eclipse SUMO sumo Version 1.20.0
-->

<configuration xmlns:xsi="http://www.w3.org/2001/XMLSchema-instance" xsi:noNamespaceSchemaLocation="http://sumo.dlr.de/xsd/sumoConfiguration.xsd">

    <input>
        <net-file value="Bari_1.net.xml"/>
        <route-files value="Bari_1.rou.xml"/>
        <additional-files value="Bari_1.add.xml"/>
    </input>

</configuration>
