<?xml version="1.0" encoding="UTF-8"?>

<!-- generated on 2024-06-11 16:41:04 by Eclipse SUMO netedit Version 1.20.0
<configuration xmlns:xsi="http://www.w3.org/2001/XMLSchema-instance" xsi:noNamespaceSchemaLocation="http://sumo.dlr.de/xsd/neteditConfiguration.xsd">

    <input>
        <sumo-net-file value="C:\Users\Marti\Desktop\prog_markov\code\Bari_1\Bari_1.net.xml"/>
        <additional-files value="C:\Users\Marti\Desktop\prog_markov\code\Bari_1\Bari_1.add.xml"/>
        <route-files value="C:\Users\Marti\Desktop\prog_markov\code\Bari_1\Bari_1.rou.xml"/>
        <sumo-net-file value="C:\Users\Marti\Desktop\prog_markov\code\Bari_1\Bari_1.net.xml"/>
    </input>

    <output>
        <output-file value="C:\Users\Marti\Desktop\prog_markov\code\Bari_1\Bari_1.net.xml"/>
	<battery-output value="battery.xml"/>
    	<chargingstations-output value="chargingstations.xml"/>
    </output>

    <processing>
        <geometry.min-radius.fix.railways value="false"/>
        <geometry.max-grade.fix value="false"/>
        <offset.disable-normalization value="true"/>
        <lefthand value="0"/>
    </processing>

    <junctions>
        <no-turnarounds value="true"/>
        <junctions.corner-detail value="5"/>
        <junctions.limit-turn-speed value="5.50"/>
        <rectangular-lane-cut value="0"/>
    </junctions>

    <pedestrian>
        <walkingareas value="0"/>
    </pedestrian>

</configuration>
-->

<net version="1.20" junctionCornerDetail="5" limitTurnSpeed="5.50" xmlns:xsi="http://www.w3.org/2001/XMLSchema-instance" xsi:noNamespaceSchemaLocation="http://sumo.dlr.de/xsd/net_file.xsd">

    <location netOffset="-656118.50,-4553716.94" convBoundary="465.88,246.57,769.20,557.39" origBoundary="16.859758,41.119650,16.872414,41.126129" projParameter="+proj=utm +zone=33 +ellps=WGS84 +datum=WGS84 +units=m +no_defs"/>

    <type id="highway.residential" priority="3" numLanes="1" speed="13.89" disallow="tram rail_urban rail rail_electric rail_fast ship container cable_car subway aircraft wheelchair scooter drone" oneway="0"/>
    <type id="highway.tertiary" priority="10" numLanes="1" speed="13.89" disallow="tram rail_urban rail rail_electric rail_fast ship container cable_car subway aircraft wheelchair scooter drone" oneway="0"/>

    <edge id=":320970947_0" function="internal">
        <lane id=":320970947_0_0" index="0" disallow="tram rail_urban rail rail_electric rail_fast ship container cable_car subway aircraft wheelchair scooter drone" speed="6.51" length="9.01" shape="610.51,538.56 610.62,541.03 611.49,542.87 613.12,544.09 615.51,544.69"/>
    </edge>
    <edge id=":320970947_1" function="internal">
        <lane id=":320970947_1_0" index="0" disallow="tram rail_urban rail rail_electric rail_fast ship container cable_car subway aircraft wheelchair scooter drone" speed="13.89" length="11.16" shape="604.41,543.55 615.51,544.69"/>
    </edge>
    <edge id=":320970951_0" function="internal">
        <lane id=":320970951_0_0" index="0" disallow="tram rail_urban rail rail_electric rail_fast ship container cable_car subway aircraft wheelchair scooter drone" speed="6.68" length="9.35" shape="554.76,538.48 557.17,538.35 559.01,537.40 560.27,535.62 560.97,533.03"/>
    </edge>
    <edge id=":320970951_1" function="internal">
        <lane id=":320970951_1_0" index="0" disallow="tram rail_urban rail rail_electric rail_fast ship container cable_car subway aircraft wheelchair scooter drone" speed="13.89" length="10.81" shape="554.76,538.48 565.53,539.38"/>
    </edge>
    <edge id=":320970954_0" function="internal">
        <lane id=":320970954_0_0" index="0" disallow="tram rail_urban rail rail_electric rail_fast ship container cable_car subway aircraft wheelchair scooter drone" speed="6.42" length="9.04" shape="698.93,547.01 699.00,549.50 699.86,551.34 701.50,552.52 703.93,553.06"/>
    </edge>
    <edge id=":320970954_1" function="internal">
        <lane id=":320970954_1_0" index="0" disallow="tram rail_urban rail rail_electric rail_fast ship container cable_car subway aircraft wheelchair scooter drone" speed="13.89" length="11.17" shape="692.78,552.34 703.93,553.06"/>
    </edge>
    <edge id=":320970971_0" function="internal">
        <lane id=":320970971_0_0" index="0" disallow="tram rail_urban rail rail_electric rail_fast ship container cable_car subway aircraft wheelchair scooter drone" speed="3.90" length="2.59" shape="466.05,527.80 466.08,528.51 466.32,529.04 466.79,529.39 467.48,529.56"/>
    </edge>
    <edge id=":320970978_0" function="internal">
        <lane id=":320970978_0_0" index="0" disallow="tram rail_urban rail rail_electric rail_fast ship container cable_car subway aircraft wheelchair scooter drone" speed="13.89" length="11.09" shape="572.73,469.31 561.71,468.07"/>
    </edge>
    <edge id=":320970978_1" function="internal">
        <lane id=":320970978_1_0" index="0" disallow="tram rail_urban rail rail_electric rail_fast ship container cable_car subway aircraft wheelchair scooter drone" speed="6.51" length="4.01" shape="572.73,469.31 570.35,468.68 569.12,467.75"/>
    </edge>
    <edge id=":320970978_4" function="internal">
        <lane id=":320970978_4_0" index="0" disallow="tram rail_urban rail rail_electric rail_fast ship container cable_car subway aircraft wheelchair scooter drone" speed="6.51" length="4.96" shape="569.12,467.75 568.73,467.45 567.87,465.61 567.77,463.17"/>
    </edge>
    <edge id=":320970978_2" function="internal">
        <lane id=":320970978_2_0" index="0" disallow="tram rail_urban rail rail_electric rail_fast ship container cable_car subway aircraft wheelchair scooter drone" speed="6.54" length="8.99" shape="566.72,474.21 566.59,471.74 565.71,469.90 564.08,468.68 561.71,468.07"/>
    </edge>
    <edge id=":320970978_3" function="internal">
        <lane id=":320970978_3_0" index="0" disallow="tram rail_urban rail rail_electric rail_fast ship container cable_car subway aircraft wheelchair scooter drone" speed="13.89" length="11.09" shape="566.72,474.21 567.77,463.17"/>
    </edge>
    <edge id=":320970979_0" function="internal">
        <lane id=":320970979_0_0" index="0" disallow="tram rail_urban rail rail_electric rail_fast ship container cable_car subway aircraft wheelchair scooter drone" speed="6.35" length="9.04" shape="622.53,474.03 620.03,473.97 618.17,474.74 616.94,476.34 616.35,478.78"/>
    </edge>
    <edge id=":320970979_1" function="internal">
        <lane id=":320970979_1_0" index="0" disallow="tram rail_urban rail rail_electric rail_fast ship container cable_car subway aircraft wheelchair scooter drone" speed="13.89" length="11.38" shape="622.53,474.03 619.39,473.52 616.90,473.19 614.41,472.97 611.23,472.78"/>
    </edge>
    <edge id=":320970979_2" function="internal">
        <lane id=":320970979_2_0" index="0" disallow="tram rail_urban rail rail_electric rail_fast ship container cable_car subway aircraft wheelchair scooter drone" speed="13.89" length="11.25" shape="617.44,467.58 616.35,478.78"/>
    </edge>
    <edge id=":320970979_3" function="internal">
        <lane id=":320970979_3_0" index="0" disallow="tram rail_urban rail rail_electric rail_fast ship container cable_car subway aircraft wheelchair scooter drone" speed="6.65" length="4.15" shape="617.44,467.58 616.85,469.97 615.84,471.33"/>
    </edge>
    <edge id=":320970979_4" function="internal">
        <lane id=":320970979_4_0" index="0" disallow="tram rail_urban rail rail_electric rail_fast ship container cable_car subway aircraft wheelchair scooter drone" speed="6.65" length="4.99" shape="615.84,471.33 615.61,471.63 613.74,472.57 611.23,472.78"/>
    </edge>
    <edge id=":322549603_0" function="internal">
        <lane id=":322549603_0_0" index="0" disallow="tram rail_urban rail rail_electric rail_fast ship container cable_car subway aircraft wheelchair scooter drone" speed="3.91" length="2.54" shape="724.40,260.33 725.07,260.50 725.54,260.84 725.79,261.36 725.83,262.05"/>
    </edge>
    <edge id=":322549605_0" function="internal">
        <lane id=":322549605_0_0" index="0" disallow="tram rail_urban rail rail_electric rail_fast ship container cable_car subway aircraft wheelchair scooter drone" speed="13.89" length="11.17" shape="632.99,251.07 644.10,252.19"/>
    </edge>
    <edge id=":322549605_1" function="internal">
        <lane id=":322549605_1_0" index="0" disallow="tram rail_urban rail rail_electric rail_fast ship container cable_car subway aircraft wheelchair scooter drone" speed="6.51" length="9.01" shape="632.99,251.07 635.38,251.66 637.02,252.88 637.89,254.72 638.00,257.19"/>
    </edge>
    <edge id=":322550393_0" function="internal">
        <lane id=":322550393_0_0" index="0" disallow="tram rail_urban rail rail_electric rail_fast ship container cable_car subway aircraft wheelchair scooter drone" speed="6.51" length="9.02" shape="637.16,323.45 634.70,323.57 632.85,324.44 631.64,326.08 631.05,328.48"/>
    </edge>
    <edge id=":322550393_1" function="internal">
        <lane id=":322550393_1_0" index="0" disallow="tram rail_urban rail rail_electric rail_fast ship container cable_car subway aircraft wheelchair scooter drone" speed="13.89" length="11.18" shape="637.16,323.45 626.04,322.38"/>
    </edge>
    <edge id=":322550393_2" function="internal">
        <lane id=":322550393_2_0" index="0" disallow="tram rail_urban rail rail_electric rail_fast ship container cable_car subway aircraft wheelchair scooter drone" speed="13.89" length="11.18" shape="632.14,317.36 631.05,328.48"/>
    </edge>
    <edge id=":322550393_3" function="internal">
        <lane id=":322550393_3_0" index="0" disallow="tram rail_urban rail rail_electric rail_fast ship container cable_car subway aircraft wheelchair scooter drone" speed="6.50" length="4.09" shape="632.14,317.36 631.55,319.76 630.59,321.06"/>
    </edge>
    <edge id=":322550393_4" function="internal">
        <lane id=":322550393_4_0" index="0" disallow="tram rail_urban rail rail_electric rail_fast ship container cable_car subway aircraft wheelchair scooter drone" speed="6.50" length="4.92" shape="630.59,321.06 630.34,321.39 628.50,322.27 626.04,322.38"/>
    </edge>
    <edge id=":322550395_0" function="internal">
        <lane id=":322550395_0_0" index="0" disallow="tram rail_urban rail rail_electric rail_fast ship container cable_car subway aircraft wheelchair scooter drone" speed="6.52" length="8.99" shape="725.52,331.95 723.07,332.07 721.24,332.94 720.02,334.57 719.41,336.96"/>
    </edge>
    <edge id=":322550395_1" function="internal">
        <lane id=":322550395_1_0" index="0" disallow="tram rail_urban rail rail_electric rail_fast ship container cable_car subway aircraft wheelchair scooter drone" speed="13.89" length="11.12" shape="725.52,331.95 714.46,330.89"/>
    </edge>
    <edge id=":322550395_2" function="internal">
        <lane id=":322550395_2_0" index="0" disallow="tram rail_urban rail rail_electric rail_fast ship container cable_car subway aircraft wheelchair scooter drone" speed="13.89" length="11.15" shape="720.48,325.86 719.41,336.96"/>
    </edge>
    <edge id=":322550395_3" function="internal">
        <lane id=":322550395_3_0" index="0" disallow="tram rail_urban rail rail_electric rail_fast ship container cable_car subway aircraft wheelchair scooter drone" speed="6.46" length="4.08" shape="720.48,325.86 719.93,328.26 718.97,329.57"/>
    </edge>
    <edge id=":322550395_4" function="internal">
        <lane id=":322550395_4_0" index="0" disallow="tram rail_urban rail rail_electric rail_fast ship container cable_car subway aircraft wheelchair scooter drone" speed="6.46" length="4.88" shape="718.97,329.57 718.74,329.90 716.92,330.77 714.46,330.89"/>
    </edge>
    <edge id=":322550731_0" function="internal">
        <lane id=":322550731_0_0" index="0" disallow="tram rail_urban rail rail_electric rail_fast ship container cable_car subway aircraft wheelchair scooter drone" speed="6.52" length="9.05" shape="712.59,400.69 712.67,403.16 713.54,405.01 715.17,406.24 717.59,406.86"/>
    </edge>
    <edge id=":322550731_1" function="internal">
        <lane id=":322550731_1_0" index="0" disallow="tram rail_urban rail rail_electric rail_fast ship container cable_car subway aircraft wheelchair scooter drone" speed="13.89" length="11.22" shape="712.59,400.69 711.50,411.86"/>
    </edge>
    <edge id=":322550731_2" function="internal">
        <lane id=":322550731_2_0" index="0" disallow="tram rail_urban rail rail_electric rail_fast ship container cable_car subway aircraft wheelchair scooter drone" speed="13.89" length="11.21" shape="706.44,405.71 717.59,406.86"/>
    </edge>
    <edge id=":322550731_3" function="internal">
        <lane id=":322550731_3_0" index="0" disallow="tram rail_urban rail rail_electric rail_fast ship container cable_car subway aircraft wheelchair scooter drone" speed="6.54" length="4.15" shape="706.44,405.71 708.84,406.30 710.18,407.30"/>
    </edge>
    <edge id=":322550731_4" function="internal">
        <lane id=":322550731_4_0" index="0" disallow="tram rail_urban rail rail_electric rail_fast ship container cable_car subway aircraft wheelchair scooter drone" speed="6.54" length="4.92" shape="710.18,407.30 710.48,407.52 711.37,409.37 711.50,411.86"/>
    </edge>
    <edge id=":322550766_0" function="internal">
        <lane id=":322550766_0_0" index="0" disallow="tram rail_urban rail rail_electric rail_fast ship container cable_car subway aircraft wheelchair scooter drone" speed="6.51" length="8.99" shape="711.11,482.90 708.66,483.03 706.83,483.90 705.62,485.54 705.02,487.93"/>
    </edge>
    <edge id=":322550766_1" function="internal">
        <lane id=":322550766_1_0" index="0" disallow="tram rail_urban rail rail_electric rail_fast ship container cable_car subway aircraft wheelchair scooter drone" speed="13.89" length="11.14" shape="711.11,482.90 700.02,481.85"/>
    </edge>
    <edge id=":322550766_2" function="internal">
        <lane id=":322550766_2_0" index="0" disallow="tram rail_urban rail rail_electric rail_fast ship container cable_car subway aircraft wheelchair scooter drone" speed="13.89" length="11.16" shape="706.03,476.81 705.02,487.93"/>
    </edge>
    <edge id=":322550766_3" function="internal">
        <lane id=":322550766_3_0" index="0" disallow="tram rail_urban rail rail_electric rail_fast ship container cable_car subway aircraft wheelchair scooter drone" speed="6.45" length="4.08" shape="706.03,476.81 705.49,479.22 704.54,480.53"/>
    </edge>
    <edge id=":322550766_4" function="internal">
        <lane id=":322550766_4_0" index="0" disallow="tram rail_urban rail rail_electric rail_fast ship container cable_car subway aircraft wheelchair scooter drone" speed="6.45" length="4.89" shape="704.54,480.53 704.31,480.86 702.49,481.74 700.02,481.85"/>
    </edge>
    <edge id=":583299033_0" function="internal">
        <lane id=":583299033_0_0" index="0" disallow="tram rail_urban rail rail_electric rail_fast ship container cable_car subway aircraft wheelchair scooter drone" speed="6.51" length="9.03" shape="569.04,392.34 571.51,392.23 573.35,391.35 574.57,389.71 575.15,387.31"/>
    </edge>
    <edge id=":583299033_1" function="internal">
        <lane id=":583299033_1_0" index="0" disallow="tram rail_urban rail rail_electric rail_fast ship container cable_car subway aircraft wheelchair scooter drone" speed="13.89" length="11.20" shape="569.04,392.34 580.18,393.42"/>
    </edge>
    <edge id=":583299033_2" function="internal">
        <lane id=":583299033_2_0" index="0" disallow="tram rail_urban rail rail_electric rail_fast ship container cable_car subway aircraft wheelchair scooter drone" speed="13.89" length="11.20" shape="574.08,398.45 575.15,387.31"/>
    </edge>
    <edge id=":583299033_3" function="internal">
        <lane id=":583299033_3_0" index="0" disallow="tram rail_urban rail rail_electric rail_fast ship container cable_car subway aircraft wheelchair scooter drone" speed="6.50" length="4.10" shape="574.08,398.45 574.66,396.05 575.63,394.74"/>
    </edge>
    <edge id=":583299033_4" function="internal">
        <lane id=":583299033_4_0" index="0" disallow="tram rail_urban rail rail_electric rail_fast ship container cable_car subway aircraft wheelchair scooter drone" speed="6.50" length="4.92" shape="575.63,394.74 575.87,394.41 577.71,393.53 580.18,393.42"/>
    </edge>
    <edge id=":583299034_0" function="internal">
        <lane id=":583299034_0_0" index="0" disallow="tram rail_urban rail rail_electric rail_fast ship container cable_car subway aircraft wheelchair scooter drone" speed="13.89" length="11.27" shape="587.41,318.67 576.17,317.85"/>
    </edge>
    <edge id=":583299034_1" function="internal">
        <lane id=":583299034_1_0" index="0" disallow="tram rail_urban rail rail_electric rail_fast ship container cable_car subway aircraft wheelchair scooter drone" speed="6.51" length="4.11" shape="587.41,318.67 585.01,318.09 583.70,317.12"/>
    </edge>
    <edge id=":583299034_4" function="internal">
        <lane id=":583299034_4_0" index="0" disallow="tram rail_urban rail rail_electric rail_fast ship container cable_car subway aircraft wheelchair scooter drone" speed="6.51" length="4.93" shape="583.70,317.12 583.37,316.87 582.49,315.03 582.38,312.56"/>
    </edge>
    <edge id=":583299034_2" function="internal">
        <lane id=":583299034_2_0" index="0" disallow="tram rail_urban rail rail_electric rail_fast ship container cable_car subway aircraft wheelchair scooter drone" speed="6.41" length="9.04" shape="581.29,323.78 581.18,321.29 580.29,319.47 578.62,318.32 576.17,317.85"/>
    </edge>
    <edge id=":583299034_3" function="internal">
        <lane id=":583299034_3_0" index="0" disallow="tram rail_urban rail rail_electric rail_fast ship container cable_car subway aircraft wheelchair scooter drone" speed="13.89" length="11.28" shape="581.29,323.78 582.38,312.56"/>
    </edge>
    <edge id=":583299035_0" function="internal">
        <lane id=":583299035_0_0" index="0" disallow="tram rail_urban rail rail_electric rail_fast ship container cable_car subway aircraft wheelchair scooter drone" speed="3.90" length="2.59" shape="588.60,248.17 588.77,247.48 589.12,247.01 589.65,246.76 590.36,246.73"/>
    </edge>
    <edge id=":J13_0" function="internal">
        <lane id=":J13_0_0" index="0" disallow="tram rail_urban rail rail_electric rail_fast ship container cable_car subway aircraft wheelchair scooter drone" speed="6.49" length="9.03" shape="480.76,380.39 480.92,382.87 481.83,384.69 483.50,385.86 485.92,386.39"/>
    </edge>
    <edge id=":J13_1" function="internal">
        <lane id=":J13_1_0" index="0" disallow="tram rail_urban rail rail_electric rail_fast ship container cable_car subway aircraft wheelchair scooter drone" speed="13.89" length="11.18" shape="480.76,380.39 479.79,391.53"/>
    </edge>
    <edge id=":J16_0" function="internal">
        <lane id=":J16_0_0" index="0" disallow="tram rail_urban rail rail_electric rail_fast ship container cable_car subway aircraft wheelchair scooter drone" speed="3.91" length="2.53" shape="487.64,313.42 486.96,313.48 486.45,313.75 486.12,314.22 485.97,314.89"/>
    </edge>
    <edge id=":J5_0" function="internal">
        <lane id=":J5_0_0" index="0" disallow="tram rail_urban rail rail_electric rail_fast ship container cable_car subway aircraft wheelchair scooter drone" speed="6.52" length="8.95" shape="478.78,460.60 476.33,460.73 474.49,461.60 473.28,463.22 472.68,465.58"/>
    </edge>
    <edge id=":J5_1" function="internal">
        <lane id=":J5_1_0" index="0" disallow="tram rail_urban rail rail_electric rail_fast ship container cable_car subway aircraft wheelchair scooter drone" speed="13.89" length="11.04" shape="473.79,454.59 472.68,465.58"/>
    </edge>
    <edge id=":cluster_11291846099_322550728_0" function="internal">
        <lane id=":cluster_11291846099_322550728_0_0" index="0" disallow="tram rail_urban rail rail_electric rail_fast ship container cable_car subway aircraft wheelchair scooter drone" speed="6.97" length="10.68" shape="625.02,390.29 625.05,393.64 625.87,396.09 627.49,397.65 629.90,398.31"/>
    </edge>
    <edge id=":cluster_11291846099_322550728_1" function="internal">
        <lane id=":cluster_11291846099_322550728_1_0" index="0" disallow="tram rail_urban rail rail_electric rail_fast ship container cable_car subway aircraft wheelchair scooter drone" speed="13.89" length="13.20" shape="625.02,390.29 623.73,403.42"/>
    </edge>
    <edge id=":cluster_11291846099_322550728_2" function="internal">
        <lane id=":cluster_11291846099_322550728_2_0" index="0" disallow="tram rail_urban rail rail_electric rail_fast ship container cable_car subway aircraft wheelchair scooter drone" speed="13.89" length="11.26" shape="618.69,397.22 629.90,398.31"/>
    </edge>
    <edge id=":cluster_11291846099_322550728_3" function="internal">
        <lane id=":cluster_11291846099_322550728_3_0" index="0" disallow="tram rail_urban rail rail_electric rail_fast ship container cable_car subway aircraft wheelchair scooter drone" speed="6.56" length="4.13" shape="618.69,397.22 621.10,397.85 622.40,398.84"/>
    </edge>
    <edge id=":cluster_11291846099_322550728_4" function="internal">
        <lane id=":cluster_11291846099_322550728_4_0" index="0" disallow="tram rail_urban rail rail_electric rail_fast ship container cable_car subway aircraft wheelchair scooter drone" speed="6.56" length="4.95" shape="622.40,398.84 622.74,399.10 623.62,400.96 623.73,403.42"/>
    </edge>
    <edge id=":cluster_11390492404_11390492405_11390492406_11500285793_#1more_0" function="internal">
        <lane id=":cluster_11390492404_11390492405_11390492406_11500285793_#1more_0_0" index="0" disallow="tram rail_urban rail rail_electric rail_fast ship container cable_car subway aircraft wheelchair scooter drone" speed="7.84" length="13.49" shape="766.71,344.69 766.54,340.88 765.28,338.04 762.92,336.18 759.46,335.30"/>
    </edge>
    <edge id=":cluster_11390511286_320970958_0" function="internal">
        <lane id=":cluster_11390511286_320970958_0_0" index="0" disallow="tram rail_urban rail rail_electric rail_fast ship container cable_car subway aircraft wheelchair scooter drone" speed="3.90" length="2.60" shape="744.83,556.55 745.54,556.51 746.06,556.24 746.40,555.77 746.55,555.07"/>
    </edge>
    <edge id=":cluster_11497806973_322550817_0" function="internal">
        <lane id=":cluster_11497806973_322550817_0_0" index="0" disallow="tram rail_urban rail rail_electric rail_fast ship container cable_car subway aircraft wheelchair scooter drone" speed="6.51" length="9.03" shape="752.26,492.35 752.14,489.88 751.25,488.05 749.61,486.84 747.20,486.26"/>
    </edge>
    <edge id=":cluster_11497806973_322550817_1" function="internal">
        <lane id=":cluster_11497806973_322550817_1_0" index="0" disallow="tram rail_urban rail rail_electric rail_fast ship container cable_car subway aircraft wheelchair scooter drone" speed="13.89" length="11.18" shape="752.26,492.35 753.36,481.23"/>
    </edge>
    <edge id=":cluster_11500285790_322550736_0" function="internal">
        <lane id=":cluster_11500285790_322550736_0_0" index="0" disallow="tram rail_urban rail rail_electric rail_fast ship container cable_car subway aircraft wheelchair scooter drone" speed="6.47" length="9.03" shape="755.07,410.93 757.55,410.84 759.40,409.98 760.60,408.35 761.18,405.93"/>
    </edge>
    <edge id=":cluster_11500285790_322550736_1" function="internal">
        <lane id=":cluster_11500285790_322550736_1_0" index="0" disallow="tram rail_urban rail rail_electric rail_fast ship container cable_car subway aircraft wheelchair scooter drone" speed="13.89" length="11.22" shape="760.09,417.10 761.18,405.93"/>
    </edge>

    <edge id="24884043#3.3" from="J13" to="583299033" priority="3" type="highway.residential" spreadType="center" shape="480.32,385.99 565.92,392.04 574.61,392.88">
        <lane id="24884043#3.3_0" index="0" disallow="tram rail_urban rail rail_electric rail_fast ship container cable_car subway aircraft wheelchair scooter drone" speed="13.89" length="83.33" shape="485.92,386.39 565.92,392.04 569.04,392.34"/>
    </edge>
    <edge id="24884043#4" from="583299033" to="cluster_11291846099_322550728" priority="3" type="highway.residential" spreadType="center" shape="574.61,392.88 582.31,393.63 615.98,396.90 624.28,397.88">
        <lane id="24884043#4_0" index="0" disallow="tram rail_urban rail rail_electric rail_fast ship container cable_car subway aircraft wheelchair scooter drone" speed="13.89" length="38.69" shape="580.18,393.42 582.31,393.63 615.98,396.90 618.69,397.22"/>
    </edge>
    <edge id="24884043#5" from="cluster_11291846099_322550728" to="322550731" priority="3" type="highway.residential" spreadType="center" shape="624.28,397.88 632.58,398.52 711.99,406.25">
        <lane id="24884043#5_0" index="0" disallow="tram rail_urban rail rail_electric rail_fast ship container cable_car subway aircraft wheelchair scooter drone" speed="13.89" length="76.90" shape="629.90,398.31 632.58,398.52 706.44,405.71"/>
    </edge>
    <edge id="24884043#6" from="322550731" to="cluster_11500285790_322550736" priority="3" type="highway.residential" spreadType="center" shape="711.99,406.25 762.26,411.71">
        <lane id="24884043#6_0" index="0" disallow="tram rail_urban rail rail_electric rail_fast ship container cable_car subway aircraft wheelchair scooter drone" speed="13.89" length="37.71" shape="717.59,406.86 755.07,410.93"/>
    </edge>
    <edge id="24884052#5" from="583299035" to="322549605" priority="10" type="highway.tertiary" spreadType="center" shape="588.76,246.57 631.13,250.88 638.54,251.63">
        <lane id="24884052#5_0" index="0" disallow="tram rail_urban rail rail_electric rail_fast ship container cable_car subway aircraft wheelchair scooter drone" speed="13.89" length="42.85" shape="590.36,246.73 631.13,250.88 632.99,251.07"/>
    </edge>
    <edge id="24884052#6" from="322549605" to="322549603" priority="10" type="highway.tertiary" spreadType="center" shape="638.54,251.63 645.21,252.30 720.69,259.95 725.96,260.49">
        <lane id="24884052#6_0" index="0" disallow="tram rail_urban rail rail_electric rail_fast ship container cable_car subway aircraft wheelchair scooter drone" speed="13.89" length="80.71" shape="644.10,252.19 645.21,252.30 720.69,259.95 724.40,260.33"/>
    </edge>
    <edge id="24884077#1" from="320970951" to="320970978" priority="3" type="highway.residential" spreadType="center" shape="560.24,538.37 561.28,530.72 566.57,475.99 567.20,468.66">
        <lane id="24884077#1_0" index="0" disallow="tram rail_urban rail rail_electric rail_fast ship container cable_car subway aircraft wheelchair scooter drone" speed="13.89" length="59.11" shape="560.97,533.03 561.28,530.72 566.57,475.99 566.72,474.21"/>
    </edge>
    <edge id="24884077#2" from="320970978" to="583299033" priority="3" type="highway.residential" spreadType="center" shape="567.20,468.66 568.31,458.04 573.70,402.37 574.61,392.88">
        <lane id="24884077#2_0" index="0" disallow="tram rail_urban rail rail_electric rail_fast ship container cable_car subway aircraft wheelchair scooter drone" speed="13.89" length="65.02" shape="567.77,463.17 568.31,458.04 573.70,402.37 574.08,398.45"/>
    </edge>
    <edge id="24884077#3" from="583299033" to="583299034" priority="3" type="highway.residential" spreadType="center" shape="574.61,392.88 575.67,382.00 580.88,328.07 581.84,318.13">
        <lane id="24884077#3_0" index="0" disallow="tram rail_urban rail rail_electric rail_fast ship container cable_car subway aircraft wheelchair scooter drone" speed="13.89" length="63.83" shape="575.15,387.31 575.67,382.00 580.88,328.07 581.29,323.78"/>
    </edge>
    <edge id="24884077#4" from="583299034" to="583299035" priority="3" type="highway.residential" spreadType="center" shape="581.84,318.13 582.65,309.78 587.93,255.13 588.76,246.57">
        <lane id="24884077#4_0" index="0" disallow="tram rail_urban rail rail_electric rail_fast ship container cable_car subway aircraft wheelchair scooter drone" speed="13.89" length="64.69" shape="582.38,312.56 582.65,309.78 587.93,255.13 588.60,248.17"/>
    </edge>
    <edge id="30029559#0" from="cluster_11497806973_322550817" to="322550766" priority="3" type="highway.residential" spreadType="center" shape="754.37,486.93 705.59,482.39">
        <lane id="30029559#0_0" index="0" disallow="tram rail_urban rail rail_electric rail_fast ship container cable_car subway aircraft wheelchair scooter drone" speed="13.89" length="36.25" shape="747.20,486.26 711.11,482.90"/>
    </edge>
    <edge id="30029559#1" from="322550766" to="320970979" priority="3" type="highway.residential" spreadType="center" shape="705.59,482.39 625.83,474.59 616.89,473.08">
        <lane id="30029559#1_0" index="0" disallow="tram rail_urban rail rail_electric rail_fast ship container cable_car subway aircraft wheelchair scooter drone" speed="13.89" length="77.89" shape="700.02,481.85 625.83,474.59 622.53,474.03"/>
    </edge>
    <edge id="30029559#2" from="320970979" to="320970978" priority="3" type="highway.residential" spreadType="center" shape="616.89,473.08 608.15,472.62 577.90,469.91 567.20,468.66">
        <lane id="30029559#2_0" index="0" disallow="tram rail_urban rail rail_electric rail_fast ship container cable_car subway aircraft wheelchair scooter drone" speed="13.89" length="38.66" shape="611.23,472.78 608.15,472.62 577.90,469.91 572.73,469.31"/>
    </edge>
    <edge id="30029559#3" from="320970978" to="J5" priority="3" type="highway.residential" spreadType="center" shape="567.20,468.66 556.75,467.54 473.26,460.11">
        <lane id="30029559#3_0" index="0" disallow="tram rail_urban rail rail_electric rail_fast ship container cable_car subway aircraft wheelchair scooter drone" speed="13.89" length="83.27" shape="561.71,468.07 556.75,467.54 478.78,460.60"/>
    </edge>